174076
  -OEChem-03242523512D

 19 19  0     0  0  0  0  0  0999 V2000
    2.8660   -0.4239    0.0000 N   0  0  0  0  0  0  0  0  0  0  0  0
    3.3660    1.1149    0.0000 N   0  3  0  0  0  0  0  0  0  0  0  0
    2.8660   -1.4239    0.0000 C   0  0  0  0  0  0  0  0  0  0  0  0
    3.6750    0.1639    0.0000 C   0  0  0  0  0  0  0  0  0  0  0  0
    2.0570    0.1639    0.0000 C   0  0  0  0  0  0  0  0  0  0  0  0
    2.3660    1.1149    0.0000 C   0  0  0  0  0  0  0  0  0  0  0  0
    2.0000   -1.9239    0.0000 C   0  0  0  0  0  0  0  0  0  0  0  0
    3.9538    1.9239    0.0000 C   0  0  0  0  0  0  0  0  0  0  0  0
    3.0781   -2.0065    0.0000 H   0  0  0  0  0  0  0  0  0  0  0  0
    3.4766   -1.3163    0.0000 H   0  0  0  0  0  0  0  0  0  0  0  0
    4.2647   -0.0277    0.0000 H   0  0  0  0  0  0  0  0  0  0  0  0
    1.4674   -0.0277    0.0000 H   0  0  0  0  0  0  0  0  0  0  0  0
    2.0016    1.6165    0.0000 H   0  0  0  0  0  0  0  0  0  0  0  0
    1.6900   -1.3870    0.0000 H   0  0  0  0  0  0  0  0  0  0  0  0
    1.4631   -2.2339    0.0000 H   0  0  0  0  0  0  0  0  0  0  0  0
    2.3100   -2.4609    0.0000 H   0  0  0  0  0  0  0  0  0  0  0  0
    4.4554    1.5595    0.0000 H   0  0  0  0  0  0  0  0  0  0  0  0
    4.3182    2.4255    0.0000 H   0  0  0  0  0  0  0  0  0  0  0  0
    3.4522    2.2884    0.0000 H   0  0  0  0  0  0  0  0  0  0  0  0
  1  3  1  0  0  0  0
  1  4  1  0  0  0  0
  1  5  1  0  0  0  0
  2  4  2  0  0  0  0
  2  6  1  0  0  0  0
  2  8  1  0  0  0  0
  3  7  1  0  0  0  0
  3  9  1  0  0  0  0
  3 10  1  0  0  0  0
  4 11  1  0  0  0  0
  5  6  2  0  0  0  0
  5 12  1  0  0  0  0
  6 13  1  0  0  0  0
  7 14  1  0  0  0  0
  7 15  1  0  0  0  0
  7 16  1  0  0  0  0
  8 17  1  0  0  0  0
  8 18  1  0  0  0  0
  8 19  1  0  0  0  0
M  CHG  1   2   1
M  END
> <PUBCHEM_COMPOUND_CID>
174076

> <PUBCHEM_COMPOUND_CANONICALIZED>
1

> <PUBCHEM_CACTVS_COMPLEXITY>
72.9

> <PUBCHEM_CACTVS_HBOND_ACCEPTOR>
0

> <PUBCHEM_CACTVS_HBOND_DONOR>
0

> <PUBCHEM_CACTVS_ROTATABLE_BOND>
1

> <PUBCHEM_CACTVS_SUBSKEYS>
AAADccBjAAAAAAAAAAAAAAAAAAAAAWAAAAAAAAAAAAAAAAABgAAAHAAAAAAAAADBAgQvkBcMEACgABAnZAAAgC0REqAJQAAYMACASAAACAAQAAAIAAKAACAAAAAAAAAAAAAAAAAAAAAAAAAAAAAAAAAAAA==

> <PUBCHEM_IUPAC_OPENEYE_NAME>
1-ethyl-3-methyl-imidazol-3-ium

> <PUBCHEM_IUPAC_CAS_NAME>
1-ethyl-3-methylimidazol-3-ium

> <PUBCHEM_IUPAC_NAME_MARKUP>
1-ethyl-3-methylimidazol-3-ium

> <PUBCHEM_IUPAC_NAME>
1-ethyl-3-methylimidazol-3-ium

> <PUBCHEM_IUPAC_SYSTEMATIC_NAME>
1-ethyl-3-methyl-imidazol-3-ium

> <PUBCHEM_IUPAC_TRADITIONAL_NAME>
1-ethyl-3-methyl-imidazol-3-ium

> <PUBCHEM_IUPAC_INCHI>
InChI=1S/C6H11N2/c1-3-8-5-4-7(2)6-8/h4-6H,3H2,1-2H3/q+1

> <PUBCHEM_IUPAC_INCHIKEY>
NJMWOUFKYKNWDW-UHFFFAOYSA-N

> <PUBCHEM_XLOGP3_AA>
0.4

> <PUBCHEM_EXACT_MASS>
111.092223359

> <PUBCHEM_MOLECULAR_FORMULA>
C6H11N2+

> <PUBCHEM_MOLECULAR_WEIGHT>
111.17

> <PUBCHEM_SMILES>
CCN1C=C[N+](=C1)C

> <PUBCHEM_OPENEYE_CAN_SMILES>
CCN1C=C[N+](=C1)C

> <PUBCHEM_OPENEYE_ISO_SMILES>
CCN1C=C[N+](=C1)C

> <PUBCHEM_CACTVS_TPSA>
8.8

> <PUBCHEM_MONOISOTOPIC_WEIGHT>
111.092223359

> <PUBCHEM_TOTAL_CHARGE>
1

> <PUBCHEM_HEAVY_ATOM_COUNT>
8

> <PUBCHEM_ATOM_DEF_STEREO_COUNT>
0

> <PUBCHEM_ATOM_UDEF_STEREO_COUNT>
0

> <PUBCHEM_BOND_DEF_STEREO_COUNT>
0

> <PUBCHEM_BOND_UDEF_STEREO_COUNT>
0

> <PUBCHEM_ISOTOPIC_ATOM_COUNT>
0

> <PUBCHEM_COMPONENT_COUNT>
1

> <PUBCHEM_CACTVS_TAUTO_COUNT>
-1

> <PUBCHEM_COORDINATE_TYPE>
1
5
255

> <PUBCHEM_BONDANNOTATIONS>
1  4  8
1  5  8
2  4  8
2  6  8
5  6  8

$$$$
