19
	Energy:      45.5934558
N          2.86891       -0.57779       -0.05437
N          3.54130        1.58045       -0.17733
C          2.95615       -2.02162        0.05934
C          3.94913        0.27267       -0.11071
C          1.74881        0.25456       -0.05682
C          2.15109        1.54048       -0.11696
C          1.60893       -2.71719        0.16207
C          4.37491        2.74974       -0.07470
H          3.49220       -2.41818       -0.81143
H          3.55092       -2.27619        0.94485
H          4.98232       -0.04748       -0.07061
H          0.74309       -0.13192        0.00052
H          1.56058        2.44386       -0.11549
H          1.03769       -2.35697        1.02395
H          1.00977       -2.55586       -0.74012
H          1.75088       -3.79604        0.28262
H          5.34214        2.58468       -0.56143
H          4.55617        3.00149        0.97537
H          3.90211        3.61100       -0.55875
