96
Lattice="10.4 0.0 0.0 0.0 10.4 0.0 0.0 0.0 10.4" Properties=species:S:1:pos:R:3 Built=T with=T Packmol=T pbc="F F F"
N        7.55126550       7.71360000       5.08118400
N        7.35214950       6.38512900       6.76953300
C        8.08394250       8.35314100       3.89666900
C        8.13692950       6.70566400       5.73571300
C        6.37314550       8.04312700       5.70705900
C        6.24703350       7.20196000       6.77625300
C        7.60825150       7.68381000       2.61861200
C        7.63144450       5.33711700       7.72853200
H        7.79023650       9.40892600       3.90108100
H        9.17804550       8.32127500       3.94982700
H        9.07236850       6.23592900       5.47483400
H        5.78131750       8.83923100       5.29785600
H        5.51756950       7.06578000       7.55127000
H        7.90747450       6.63101600       2.59803900
H        8.03356850       8.18250100       1.74267300
H        6.51686550       7.72158300       2.54298900
H        8.58178850       4.85257300       7.48927400
H        7.69142750       5.77159600       8.73024700
H        6.82992950       4.59412600       7.69375700
N        4.01882250       1.68882300       7.55701200
N        6.17434550       1.78078400       7.57326100
C        2.64252750       1.73035900       8.00413700
C        5.08357750       1.90303200       8.33660000
C        4.43571750       1.42483400       6.27452100
C        5.80069250       1.48298200       6.28476000
C        2.03959950       3.11925100       7.88096700
C        7.53528250       1.93996000       8.04073100
H        2.05747750       1.01218600       7.41855200
H        2.60895250       1.40011400       9.04850900
H        5.06452450       2.13424000       9.39013400
H        3.69312750       1.23154000       5.52439700
H        6.57010850       1.35395900       5.54810100
H        2.60935950       3.84286700       8.47264700
H        1.00412850       3.12109700       8.23403100
H        2.05133450       3.45719800       6.83985100
H        7.54103550       2.16550500       9.11044000
H        8.08746750       1.01244700       7.86576100
H        8.00902550       2.76198200       7.49711500
N        5.44295350       3.45729000       3.52104800
N        7.34217550       2.56375100       4.02059300
C        4.18949850       3.72431900       2.84771300
C        6.31241050       2.50430800       3.17003000
C        5.92497350       4.13736900       4.61348800
C        7.12768450       3.57163200       4.92982800
C        3.03998450       2.92211100       3.43319900
C        8.50010650       1.69556900       3.98224400
H        3.97286250       4.79656000       2.91353600
H        4.31019750       3.48305600       1.78558000
H        6.20114750       1.81234000       2.34993600
H        5.33641950       4.93789000       5.01877400
H        7.87146850       3.74454400       5.68362000
H        3.24052850       1.84837100       3.36110300
H        2.10987650       3.13790600       2.89916700
H        2.89629550       3.16396900       4.49108700
H        8.41373550       0.99073800       3.15101900
H        9.40063950       2.30125000       3.84811100
H        8.56397550       1.13865600       4.92109400
N        3.17368750       7.75783900       6.89229500
N        3.41897950       7.34551900       4.78876800
C        3.03859750       8.47917800       8.14019500
C        3.33143850       8.32663100       5.69273800
C        3.16067950       6.39083600       6.75297700
C        3.31607950       6.12967000       5.42095400
C        1.58934250       8.79618500       8.46712300
C        3.59448350       7.54318100       3.36534100
H        3.48478450       7.88331600       8.94445300
H        3.61628050       9.40747400       8.06637500
H        3.37777850       9.38552400       5.49186200
H        3.03967350       5.78776500       7.63226700
H        3.36788850       5.23929000       4.82441800
H        1.13719050       9.40224300       7.67555300
H        1.52004250       9.34822500       9.40909300
H        1.00181050       7.87724500       8.55997900
H        3.65415750       8.61106400       3.13896200
H        4.51921950       7.05537400       3.04485800
H        2.74286650       7.10971500       2.83380900
Cl       6.06697950       4.69331300       0.99226600
Cl       9.36781350       2.75205200       0.99228900
Cl       9.39857550       6.58128600       0.99227500
Al       8.27778950       4.67555000       0.99227700
Cl       6.31235950       9.33798200       0.99237000
Cl       4.33701050       6.05743400       0.99239900
Cl       2.48365050       9.40841000       0.99237900
Al       4.37767350       8.26794200       0.99238300
Cl       4.82145150       1.24317900       0.99090700
Cl       0.99936050       1.00734900       0.99136500
Cl       2.70617150       4.43529000       0.99120100
Al       2.84232750       2.22860600       0.99115700
Cl       1.00002250       5.63922300       4.84863000
Cl       1.00000350       9.40885200       5.52235000
Cl       0.99979650       8.10749600       1.92089900
Al       0.99994050       7.71852400       4.09729300
Cl       5.61251650       5.58603600       9.39256100
Cl       5.39586550       9.40926200       9.39255600
Cl       8.81519950       7.68527400       9.39254100
Al       6.60786050       7.56019100       9.39255300
