8
Lattice="10.0 0.0 0.0 0.0 10.0 0.0 0.0 0.0 10.0" Properties=species:S:1:pos:R:3 1176=T pbc="T T T"
O             6.5688992901        5.7374925608        5.0000000000
N             4.2800834522        5.7592766022        5.0000000000
N             5.4442035433        3.7440405244        5.0000000000
C             5.5011688465        5.1208115657        5.0000000000
H             3.3889874174        5.2814426565        5.0000000000
H             4.2924146944        6.7692350600        5.0000000000
H             6.3247278493        3.2486326704        5.0000000000
H             4.5839349068        3.2128383600        5.0000000000
